Circuit: * C:\users\rikeshc\Desktop\Rikesh\mast\INF5460\oblig_1\3.asc

.OP point found by inspection.

Date: Fri Sep 09 16:03:42 2016
Total elapsed time: 0.337 seconds.

tnom = 27
temp = 27
method = modified trap
totiter = 4304
traniter = 4304
tranpoints = 2153
accept = 1876
rejected = 277
matrix size = 2
fillins = 0
solver = Normal
Matrix Compiler1: 54 bytes object code size  0.9/0.9/[0.9]
Matrix Compiler2:      10 opcodes  0.9/[0.8]/0.9


