Circuit: * Z:\uio\hume\student-u18\rikeshc\Rikesh\mast\INF5460\oblig_1\3.asc

.OP point found by inspection.

Date: Fri Sep 16 10:33:35 2016
Total elapsed time: 0.081 seconds.

tnom = 27
temp = 27
method = modified trap
totiter = 1308
traniter = 1308
tranpoints = 655
accept = 591
rejected = 64
matrix size = 2
fillins = 0
solver = Normal
Matrix Compiler1:       3 opcodes  1.0/[0.9]/1.0
Matrix Compiler2: 116 bytes object code size  0.9/0.9/[0.9]


