Circuit: * Z:\uio\hume\student-u18\rikeshc\Rikesh\mast\INF5460\oblig_1\3.asc

.OP point found by inspection.

Date: Wed Sep 14 11:37:58 2016
Total elapsed time: 0.062 seconds.

tnom = 27
temp = 27
method = modified trap
totiter = 1222
traniter = 1222
tranpoints = 612
accept = 557
rejected = 55
matrix size = 2
fillins = 0
solver = Normal
Matrix Compiler1: 54 bytes object code size  0.9/0.9/[0.6]
Matrix Compiler2:      10 opcodes  1.0/[0.8]/0.9


