Circuit: * C:\users\rikeshc\Desktop\Rikesh\mast\INF5460\oblig_1\3f.asc

.OP point found by inspection.

Date: Fri Sep 09 18:19:36 2016
Total elapsed time: 0.188 seconds.

tnom = 27
temp = 27
method = modified trap
totiter = 4428
traniter = 4428
tranpoints = 2215
accept = 1984
rejected = 231
matrix size = 2
fillins = 0
solver = Normal
Matrix Compiler1: 54 bytes object code size  1.0/1.1/[1.0]
Matrix Compiler2:      10 opcodes  0.9/[0.8]/1.0


