Circuit: * C:\users\rikeshc\Desktop\Rikesh\mast\INF5460\oblig_1\Draft2.asc

WARNING: Less than two connections to node FILE2.  This node is used by B1.
Direct Newton iteration for .op point succeeded.

Date: Fri Sep 09 18:55:41 2016
Total elapsed time: 1.359 seconds.

tnom = 27
temp = 27
method = modified trap
totiter = 230029
traniter = 230026
tranpoints = 115014
accept = 115014
rejected = 0
matrix size = 4
fillins = 0
solver = Normal
Matrix Compiler1:       4 opcodes  1.1/[0.8]/1.0
Matrix Compiler2: 174 bytes object code size  0.8/1.1/[0.8]


