Circuit: * C:\users\rikeshc\Desktop\Rikesh\mast\INF5460\oblig_1\Draft1.asc

WARNING: Less than two connections to node WH_1.  This node is used by WH1.
WARNING: Less than two connections to node WH_2.  This node is used by WH2.
Direct Newton iteration for .op point succeeded.

Date: Fri Sep 09 13:23:34 2016
Total elapsed time: 2.233 seconds.

tnom = 27
temp = 27
method = modified trap
totiter = 200037
traniter = 200034
tranpoints = 100018
accept = 100018
rejected = 0
matrix size = 4
fillins = 0
solver = Normal
Matrix Compiler1: off  [0.8]/1.0/1.0
Matrix Compiler2: 160 bytes object code size  0.9/1.0/[0.8]


