Circuit: * C:\users\rikeshc\Desktop\Rikesh\mast\INF5460\oblig_1\LM741_5b.asc

WARNING: Less than two connections to node WH_2.  This node is used by WH2.
WARNING: Less than two connections to node FILE_1.  This node is used by V1.
Direct Newton iteration for .op point succeeded.

Date: Fri Sep 09 13:31:59 2016
Total elapsed time: 0.419 seconds.

tnom = 27
temp = 27
method = modified trap
totiter = 44257
traniter = 44254
tranpoints = 22128
accept = 22128
rejected = 0
matrix size = 4
fillins = 0
solver = Normal
Matrix Compiler1: 46 bytes object code size  1.0/0.9/[0.8]
Matrix Compiler2: 160 bytes object code size  0.8/0.8/[0.8]


