Circuit: * C:\users\rikeshc\Desktop\Rikesh\mast\INF5460\oblig_1\LM741_4.asc


Date: Fri Sep 09 10:40:59 2016
Total elapsed time: 0.032 seconds.

tnom = 27
temp = 27
method = trap
totiter = 0
traniter = 0
tranpoints = 0
accept = 0
rejected = 0
matrix size = 3
fillins = 0
solver = Normal

