Circuit: * C:\users\rikeshc\Desktop\Rikesh\mast\INF5460\oblig_1\LM741_5a.asc

WARNING: Less than two connections to node WH_1.  This node is used by WH1.
WARNING: Less than two connections to node WH_2.  This node is used by WH2.
.OP point found by inspection.

Date: Fri Sep 09 13:31:09 2016
Total elapsed time: 0.255 seconds.

tnom = 27
temp = 27
method = modified trap
totiter = 10040
traniter = 10040
tranpoints = 5021
accept = 5021
rejected = 0
matrix size = 4
fillins = 0
solver = Normal
Matrix Compiler1: off  [0.8]/0.9/0.9
Matrix Compiler2: 160 bytes object code size  0.8/1.0/[0.7]


