Circuit: * Z:\uio\hume\student-u18\rikeshc\Rikesh\mast\INF5460\oblig_1\LM741_negative_dc_offset.asc

Direct Newton iteration failed to find .op point.  (Use ".option noopiter" to skip.)
Starting Gmin stepping
Gmin = 10
Gmin = 1.07374
Gmin = 0.115292
Gmin = 0.0123794
Gmin = 0.00132923
Gmin = 0.000142725
Gmin = 1.5325e-005
Gmin = 1.6455e-006
vernier = 0.5
Gmin = 3.06744e-007
vernier = 0.25
vernier = 0.125
vernier = 0.0625
Gmin = 3.14508e-007
vernier = 0.0833333
vernier = 0.111111
Gmin = 2.52041e-007
vernier = 0.148148
vernier = 0.197531
Gmin = 1.77858e-007
vernier = 0.263374
Gmin = 1.0161e-007
vernier = 0.351165
vernier = 0.46822
Gmin = 4.12807e-008
vernier = 0.624294
vernier = 0.832392
Gmin = 1.02685e-008
vernier = 1
Gmin = 1.30752e-009
Gmin = 1.40394e-010
Gmin = 1.50747e-011
Gmin = 1.61863e-012
Gmin = 1.73799e-013
Gmin = 0
Gmin stepping succeeded in finding the operating point.

.step voutoff=0
.step voutoff=-0.05
.step voutoff=-0.1
.step voutoff=-0.15
.step voutoff=-0.2
.step voutoff=-0.25
.step voutoff=-0.3
.step voutoff=-0.35
.step voutoff=-0.4

Date: Wed Sep 07 19:19:24 2016
Total elapsed time: 4.954 seconds.

tnom = 27
temp = 27
method = modified trap
totiter = 7643
traniter = 6284
tranpoints = 2405
accept = 1938
rejected = 467
matrix size = 50
fillins = 46
solver = Normal
Matrix Compiler1: 7.43 KB object code size  6.6/4.0/[2.3]
Matrix Compiler2: 6.30 KB object code size  5.1/4.7/[2.1]


