Circuit: * Z:\uio\hume\student-u18\rikeshc\Rikesh\mast\INF5460\oblig_1\LM741_1c.asc

Direct Newton iteration failed to find .op point.  (Use ".option noopiter" to skip.)
Starting Gmin stepping
Gmin = 10
Gmin = 1.07374
Gmin = 0.115292
Gmin = 0.0123794
Gmin = 0.00132923
Gmin = 0.000142725
Gmin = 1.5325e-005
Gmin = 1.6455e-006
Gmin = 1.76685e-007
Gmin = 1.89714e-008
Gmin = 2.03704e-009
Gmin = 2.18725e-010
Gmin = 2.34854e-011
Gmin = 2.52173e-012
Gmin = 2.70769e-013
Gmin = 0
Gmin stepping succeeded in finding the operating point.

.step vcm=14.99
.step vcm=14.991
.step vcm=14.992
.step vcm=14.993
.step vcm=14.994
.step vcm=14.995
.step vcm=14.996
.step vcm=14.997
.step vcm=14.998
.step vcm=14.999
.step vcm=15

Date: Wed Sep 07 14:10:17 2016
Total elapsed time: 1.745 seconds.

tnom = 27
temp = 27
method = trap
totiter = 631
traniter = 0
tranpoints = 0
accept = 0
rejected = 0
matrix size = 50
fillins = 42
solver = Normal
Matrix Compiler1:     409 opcodes
Matrix Compiler2:     460 opcodes  5.3/[4.3]/5.8


