Circuit: * Z:\uio\hume\student-u18\rikeshc\Rikesh\mast\INF5460\oblig_1\LM741_1d.asc

Direct Newton iteration failed to find .op point.  (Use ".option noopiter" to skip.)
Starting Gmin stepping
Gmin = 10
Gmin = 1.07374
Gmin = 0.115292
Gmin = 0.0123794
Gmin = 0.00132923
Gmin = 0.000142725
Gmin = 1.5325e-005
Gmin = 1.6455e-006
vernier = 0.5
Gmin = 3.06744e-007
vernier = 0.25
vernier = 0.125
vernier = 0.0625
Gmin = 3.14508e-007
vernier = 0.0833333
vernier = 0.111111
Gmin = 2.52041e-007
vernier = 0.148148
vernier = 0.197531
Gmin = 1.77858e-007
vernier = 0.263374
Gmin = 1.0161e-007
vernier = 0.351165
vernier = 0.46822
Gmin = 4.12807e-008
vernier = 0.624294
vernier = 0.832392
Gmin = 1.02685e-008
vernier = 1
Gmin = 1.30752e-009
Gmin = 1.40394e-010
Gmin = 1.50747e-011
Gmin = 1.61863e-012
Gmin = 1.73799e-013
Gmin = 0
Gmin stepping succeeded in finding the operating point.

.step cload=1e-011
.step cload=2e-011
.step cload=3e-011
.step cload=4e-011
.step cload=5e-011

Date: Thu Sep 08 17:12:41 2016
Total elapsed time: 1.077 seconds.

tnom = 27
temp = 27
method = trap
totiter = 1227
traniter = 0
tranpoints = 0
accept = 0
rejected = 0
matrix size = 48
fillins = 43
solver = Normal
Matrix Compiler1:     404 opcodes
Matrix Compiler2:     448 opcodes  5.5/[4.0]/5.5


