Circuit: * C:\users\rikeshc\Desktop\Rikesh\mast\INF5460\oblig_1\PseudoRandomPeriod.asc

WARNING: Node N002 is floating.

WARNING: Less than two connections to node N001.  This node is used by V1.
WARNING: Less than two connections to node N004.  This node is used by V2.
WARNING: Less than two connections to node N002.  This node is used by C1.
.OP point found by inspection.

Date: Fri Sep 09 11:32:47 2016
Total elapsed time: 0.139 seconds.

tnom = 27
temp = 27
method = modified trap
totiter = 5682
traniter = 5682
tranpoints = 2842
accept = 2500
rejected = 342
matrix size = 6
fillins = 0
solver = Normal
Matrix Compiler1:       7 opcodes  1.0/[0.8]/0.9
Matrix Compiler2: 272 bytes object code size  1.0/0.9/[0.9]


