Circuit: * C:\users\rikeshc\Desktop\Rikesh\mast\INF5460\oblig_1\TestingRandom()&White().asc

WARNING: Less than two connections to node C.  This node is used by B3.
WARNING: Less than two connections to node A.  This node is used by B1.
WARNING: Less than two connections to node B.  This node is used by B2.
Direct Newton iteration for .op point succeeded.

Date: Fri Sep 09 11:33:41 2016
Total elapsed time: 0.319 seconds.

tnom = 27
temp = 27
method = modified trap
totiter = 18590
traniter = 18587
tranpoints = 8606
accept = 8453
rejected = 153
matrix size = 6
fillins = 0
solver = Normal
Matrix Compiler1:       5 opcodes  0.9/[0.7]/0.9
Matrix Compiler2:      24 opcodes  0.8/[0.8]/0.9


